Clear
New Circuit.Zone_2


Redirect Vsource.dss
Redirect WireData.dss
Redirect LineGeometry.dss
Redirect LineCode.dss
Redirect LoadShape.dss
Redirect GrowthShape.dss
Redirect TCC_Curve.dss
Redirect Spectrum.dss
Redirect Branches.dss
Redirect Transformers.dss
Redirect Loads.dss
Redirect Capacitors.dss
