!--- OpenDSS Linecodes file generated from Show LINECONSTANTS command
!--- Frequency = 60 Hz, Earth resistivity = 100 ohm-m
!--- Earth Model = Deri

New Linecode.606 nphases=3  Units=kft
~ Rmatrix=[0.0942818  |0.0180065  0.0942818  |0.0180065  0.0180065  0.0942818  ]
~ Xmatrix=[0.277657  |0.200082  0.277657  |0.184153  0.200082  0.277657  ]
~ Cmatrix=[3.8774  |-1.5329  4.37135  |-0.659201  -1.5329  3.8774  ]

New Linecode.607 nphases=1  Units=kft
~ Rmatrix=[0.249034  ]
~ Xmatrix=[0.109398  ]
~ Cmatrix=[2.70992  ]
