!--- OpenDSS Linecodes file generated from Show LINECONSTANTS command
!--- Frequency = 60 Hz, Earth resistivity = 100 ohm-m
!--- Earth Model = Deri

New Linecode.606 nphases=3  Units=kft
~ Rmatrix=[0.0943681  |0.0180927  0.0943681  |0.0180927  0.0180927  0.0943681  ]
~ Xmatrix=[0.27757  |0.199996  0.27757  |0.184067  0.199996  0.27757  ]
~ Cmatrix=[3.8774  |-1.5329  4.37135  |-0.659201  -1.5329  3.8774  ]

New Linecode.607 nphases=1  Units=kft
~ Rmatrix=[0.249022  ]
~ Xmatrix=[0.109384  ]
~ Cmatrix=[2.70992  ]
