New "Generator.gen_0" bus1=645.1.2.3 phases=3 kv=4.16 conn=wye kVA=2000 model=1 pf=1 daily=new_profile
